@<TRIPOS>MOLECULE
4piol.xyz
 24 25 0 0 0
SMALL
GASTEIGER

@<TRIPOS>ATOM
      1 C           1.7207   -0.2245    0.0296 C.ar    1  UNL1        0.0437
      2 C           0.4124   -0.5598   -0.1992 C.ar    1  UNL1        0.1441
      3 C           2.4345   -1.3625   -0.3840 C.ar    1  UNL1        0.2524
      4 C          -1.0107    1.4392   -0.8483 C.3     1  UNL1       -0.0306
      5 C          -1.1746    0.4897    1.4807 C.3     1  UNL1       -0.0306
      6 C          -2.3294    2.1681   -0.5889 C.3     1  UNL1       -0.0035
      7 C          -2.4865    1.2571    1.6463 C.3     1  UNL1       -0.0035
      8 C          -0.9095    0.1631    0.0024 C.3     1  UNL1        0.0223
      9 N           1.6305   -2.3296   -0.8349 N.ar    1  UNL1       -0.0400
     10 O           0.3456   -1.8137   -0.7151 O.2     1  UNL1       -0.3559
     11 O           3.7574   -1.5716   -0.3761 O.3     1  UNL1       -0.4904
     12 H           2.1006    0.7019    0.4340 H       1  UNL1        0.0706
     13 H          -0.9332    1.1896   -1.9138 H       1  UNL1        0.0284
     14 H          -0.1713    2.1122   -0.6243 H       1  UNL1        0.0284
     15 H          -0.3484    1.0861    1.8917 H       1  UNL1        0.0284
     16 H          -1.2143   -0.4349    2.0700 H       1  UNL1        0.0284
     17 H          -2.3461    3.1044   -1.1573 H       1  UNL1        0.0424
     18 H          -3.1742    1.5682   -0.9478 H       1  UNL1        0.0424
     19 H          -3.3382    0.6188    1.3810 H       1  UNL1        0.0424
     20 H          -2.6169    1.5331    2.6985 H       1  UNL1        0.0424
     21 H          -1.7054   -0.5396   -0.3401 H       1  UNL1        0.0381
     22 H           3.9818   -2.4588   -0.7219 H       1  UNL1        0.2938
     23 N          -2.5049    2.4855    0.8369 N.3     1  UNL1       -0.3159
     24 H          -3.3898    2.9550    0.9660 H       1  UNL1        0.1219
@<TRIPOS>BOND
     1    13     4    1
     2    17     6    1
     3    18     6    1
     4     4    14    1
     5     4     6    1
     6     4     8    1
     7     9    10   ar
     8     9     3   ar
     9    22    11    1
    10    10     2   ar
    11     6    23    1
    12     3    11    1
    13     3     1   ar
    14    21     8    1
    15     2     8    1
    16     2     1   ar
    17     8     5    1
    18     1    12    1
    19    23    24    1
    20    23     7    1
    21    19     7    1
    22     5     7    1
    23     5    15    1
    24     5    16    1
    25     7    20    1
