@<TRIPOS>MOLECULE
MOL
   26    26     1     0     0
SMALL


@<TRIPOS>ATOM
      1 N1          18.1280    -0.5020    42.1640 n3         1 MOL      -0.916800
      2 C1          21.9090    -3.5670    40.8230 c3         1 MOL      -0.104700
      3 O1          24.2000    -4.4640    40.9570 oh         1 MOL      -0.606100
      4 C2          22.0520    -2.2980    40.0920 c3         1 MOL      -0.073400
      5 O2          22.5780    -5.7630    40.3660 o          1 MOL      -0.552000
      6 C3          20.7430    -1.6000    39.9020 c3         1 MOL      -0.074900
      7 C4          19.8410    -1.6570    41.0620 c3         1 MOL      -0.070700
      8 C5          19.7300    -2.9920    41.7890 c3         1 MOL      -0.074900
      9 C6          21.0410    -3.6860    42.0220 c3         1 MOL      -0.073400
     10 C7          18.3710    -1.0160    40.8590 c3         1 MOL       0.162800
     11 C8          23.0010    -4.6150    40.7470 c          1 MOL       0.635100
     12 H1          20.9140    -0.5640    39.6060 hc         1 MOL       0.044450
     13 H2          20.2290    -2.0620    39.0570 hc         1 MOL       0.044450
     14 H3          22.7120    -1.6500    40.6710 hc         1 MOL       0.056200
     15 H4          22.5480    -2.4470    39.1310 hc         1 MOL       0.056200
     16 H5          20.8730    -4.7260    42.3100 hc         1 MOL       0.056200
     17 H6          21.5490    -3.2130    42.8640 hc         1 MOL       0.056200
     18 H7          19.2180    -2.8800    42.7450 hc         1 MOL       0.044450
     19 H8          19.0950    -3.6500    41.1940 hc         1 MOL       0.044450
     20 H9          20.3810    -1.0150    41.7650 hc         1 MOL       0.070700
     21 H10         17.6270    -1.7540    40.5530 h1         1 MOL       0.025700
     22 H11         18.3800    -0.2020    40.1320 h1         1 MOL       0.025700
     23 H12         17.1920    -0.1070    42.1950 hn         1 MOL       0.349300
     24 H13         18.0910    -1.2760    42.8200 hn         1 MOL       0.349300
     25 H14         21.2330    -4.0300    40.0980 hc         1 MOL       0.082700
     26 H15         24.6550    -5.3010    40.8350 ho         1 MOL       0.443000
@<TRIPOS>BOND
     1     1    10 1   
     2     1    23 1   
     3     1    24 1   
     4     2     4 1   
     5     2     9 1   
     6     2    11 1   
     7     2    25 1   
     8     3    11 1   
     9     3    26 1   
    10     4     6 1   
    11     4    14 1   
    12     4    15 1   
    13     5    11 2   
    14     6     7 1   
    15     6    12 1   
    16     6    13 1   
    17     7     8 1   
    18     7    10 1   
    19     7    20 1   
    20     8     9 1   
    21     8    18 1   
    22     8    19 1   
    23     9    16 1   
    24     9    17 1   
    25    10    21 1   
    26    10    22 1   
@<TRIPOS>SUBSTRUCTURE
     1 MOL         1 TEMP              0 ****  ****    0 ROOT
