@<TRIPOS>MOLECULE
TXA.xyz
 26 26 0 0 0
SMALL
GASTEIGER

@<TRIPOS>ATOM
      1 N          -2.9361    2.4445    1.1767 N.3     1  UNL1       -0.9629
      2 C           0.8449   -0.6205   -0.1643 C.3     1  UNL1       -0.0016
      3 O           3.1359   -1.5175   -0.0303 O.3     1  UNL1       -0.6288
      4 C           0.9879    0.6485   -0.8953 C.3     1  UNL1       -0.0082
      5 O           1.5139   -2.8165   -0.6213 O.2     1  UNL1       -0.5796
      6 C          -0.3211    1.3465   -1.0853 C.3     1  UNL1       -0.0436
      7 C          -1.2231    1.2895    0.0747 C.3     1  UNL1       -0.0075
      8 C          -1.3341   -0.0455    0.8017 C.3     1  UNL1       -0.0006
      9 C          -0.0231   -0.7395    1.0347 C.3     1  UNL1       -0.1155
     10 C          -2.6931    1.9305   -0.1283 C.3     1  UNL1        0.0823
     11 C           1.9369   -1.6685   -0.2403 C.2     1  UNL1        0.6850
     12 H          -0.1501    2.3828   -1.3815 H       1  UNL1        0.0375
     13 H          -0.8347    0.8843   -1.9299 H       1  UNL1       -0.0174
     14 H           1.6476    1.2964   -0.3165 H       1  UNL1       -0.0107
     15 H           1.4839    0.4996   -1.8564 H       1  UNL1        0.0311
     16 H          -0.1910   -1.7794    1.3224 H       1  UNL1        0.0547
     17 H           0.4846   -0.2669    1.8766 H       1  UNL1        0.0216
     18 H          -1.8462    0.0670    1.7578 H       1  UNL1        0.0247
     19 H          -1.9692   -0.7039    0.2067 H       1  UNL1        0.0192
     20 H          -0.6834    1.9315    0.7774 H       1  UNL1        0.0607
     21 H          -3.4373    1.1926   -0.4340 H       1  UNL1        0.0235
     22 H          -2.6838    2.7443   -0.8557 H       1  UNL1        0.0838
     23 H          -3.8726    2.8396    1.2075 H       1  UNL1        0.3782
     24 H          -2.9726    1.6708    1.8329 H       1  UNL1        0.3609
     25 H           0.1690   -1.0831   -0.8895 H       1  UNL1        0.0292
     26 H           3.5905   -2.3542   -0.1522 H       1  UNL1        0.4840
@<TRIPOS>BOND
     1    13     6    1
     2    15     4    1
     3    12     6    1
     4     6     4    1
     5     6     7    1
     6     4    14    1
     7     4     2    1
     8    25     2    1
     9    22    10    1
    10     5    11    2
    11    21    10    1
    12    11     2    1
    13    11     3    1
    14     2     9    1
    15    26     3    1
    16    10     7    1
    17    10     1    1
    18     7    20    1
    19     7     8    1
    20    19     8    1
    21     8     9    1
    22     8    18    1
    23     9    16    1
    24     9    17    1
    25     1    23    1
    26     1    24    1
